units(length='cm', time='s', quantity='mol', act_energy='cal/mol')

ideal_gas(name='gas',
          elements="H N",
          species="""N2H4  N2    H2    H     N     NH""",
          initial_state=state(temperature=300.0, pressure=OneAtm))

#-------------------------------------------------------------------------------
# Species data
#-------------------------------------------------------------------------------

species(name='N2H4',
        atoms='H:4 N:2',
        thermo=(NASA9([200.00, 1000.00],
                      [-1.660756354E+05,  3.035416736E+03, -1.736889823E+01,
                        7.159834020E-02, -8.866799300E-05,  5.798970280E-08,
                       -1.530037218E-11, -3.731927230E+03,  1.190002218E+02]),
                NASA9([1000.00, 6000.00],
                      [ 3.293486700E+06, -1.199850628E+04,  2.104406814E+01,
                       -1.399381724E-03,  1.933173351E-07, -1.318016127E-11,
                        3.166400170E-16,  8.348433700E+04, -1.155751024E+02])),
        note='Gurvich,1989 pt1 p360 pt2 p225. [g 4/99]')

species(name='N2',
        atoms='N:2',
        thermo=(NASA9([200.00, 1000.00],
                      [ 2.210371497E+04, -3.818461820E+02,  6.082738360E+00,
                       -8.530914410E-03,  1.384646189E-05, -9.625793620E-09,
                        2.519705809E-12,  7.108460860E+02, -1.076003744E+01]),
                NASA9([1000.00, 6000.00],
                      [ 5.877124060E+05, -2.239249073E+03,  6.066949220E+00,
                       -6.139685500E-04,  1.491806679E-07, -1.923105485E-11,
                        1.061954386E-15,  1.283210415E+04, -1.586640027E+01]),
                NASA9([6000.00, 20000.00],
                      [ 8.310139160E+08, -6.420733540E+05,  2.020264635E+02,
                       -3.065092046E-02,  2.486903333E-06, -9.705954110E-11,
                        1.437538881E-15,  4.938707040E+06, -1.672099740E+03])),
        note='Ref-Elm. Gurvich,1978 pt1 p280 pt2 p207. [tpis78]')

species(name='H2',
        atoms='H:2',
        thermo=(NASA9([200.00, 1000.00],
                      [ 4.078323210E+04, -8.009186040E+02,  8.214702010E+00,
                       -1.269714457E-02,  1.753605076E-05, -1.202860270E-08,
                        3.368093490E-12,  2.682484665E+03, -3.043788844E+01]),
                NASA9([1000.00, 6000.00],
                      [ 5.608128010E+05, -8.371504740E+02,  2.975364532E+00,
                        1.252249124E-03, -3.740716190E-07,  5.936625200E-11,
                       -3.606994100E-15,  5.339824410E+03, -2.202774769E+00]),
                NASA9([6000.00, 20000.00],
                      [ 4.966884120E+08, -3.147547149E+05,  7.984121880E+01,
                       -8.414789210E-03,  4.753248350E-07, -1.371873492E-11,
                        1.605461756E-16,  2.488433516E+06, -6.695728110E+02])),
        note='Ref-Elm. Gurvich,1978 pt1 p103 pt2 p31. [tpis78]')

species(name='H',
        atoms='H:1',
        thermo=(NASA9([200.00, 1000.00],
                      [ 0.000000000E+00,  0.000000000E+00,  2.500000000E+00,
                        0.000000000E+00,  0.000000000E+00,  0.000000000E+00,
                        0.000000000E+00,  2.547370801E+04, -4.466828530E-01]),
                NASA9([1000.00, 6000.00],
                      [ 6.078774250E+01, -1.819354417E-01,  2.500211817E+00,
                       -1.226512864E-07,  3.732876330E-11, -5.687744560E-15,
                        3.410210197E-19,  2.547486398E+04, -4.481917770E-01]),
                NASA9([6000.00, 20000.00],
                      [ 2.173757694E+08, -1.312035403E+05,  3.399174200E+01,
                       -3.813999680E-03,  2.432854837E-07, -7.694275540E-12,
                        9.644105630E-17,  1.067638086E+06, -2.742301051E+02])),
        note='D0(H2):Herzberg,1970. Moore,1972. Gordon,1999. [g 6/97]')

species(name='N',
        atoms='N:1',
        thermo=(NASA9([200.00, 1000.00],
                      [ 0.000000000E+00,  0.000000000E+00,  2.500000000E+00,
                        0.000000000E+00,  0.000000000E+00,  0.000000000E+00,
                        0.000000000E+00,  5.610463780E+04,  4.193905036E+00]),
                NASA9([1000.00, 6000.00],
                      [ 8.876501380E+04, -1.071231500E+02,  2.362188287E+00,
                        2.916720081E-04, -1.729515100E-07,  4.012657880E-11,
                       -2.677227571E-15,  5.697351330E+04,  4.865231506E+00]),
                NASA9([6000.00, 20000.00],
                      [ 5.475181050E+08, -3.107574980E+05,  6.916782740E+01,
                       -6.847988130E-03,  3.827572400E-07, -1.098367709E-11,
                        1.277986024E-16,  2.550585618E+06, -5.848769753E+02])),
        note='Hf:Cox,1989. Moore,1975. Gordon,1999. [g 5/97]')

species(name='NH',
        atoms='H:1 N:1',
        thermo=(NASA9([200.00, 1000.00],
                      [ 1.359651320E+04, -1.900296604E+02,  4.518496790E+00,
                       -2.432776899E-03,  2.377587464E-06, -2.592797084E-10,
                       -2.659680792E-13,  4.280972190E+04, -3.886561616E+00]),
                NASA9([1000.00, 6000.00],
                      [ 1.958141991E+06, -5.782861300E+03,  9.335742020E+00,
                       -2.292910311E-03,  6.076092480E-07, -6.647942750E-11,
                        2.384234783E-15,  7.898912340E+04, -4.116970400E+01]),
                NASA9([6000.00, 20000.00],
                      [ 9.524636790E+07, -8.585826910E+04,  2.980445181E+01,
                       -2.979563697E-03,  1.656334158E-07, -4.744791840E-12,
                        5.570148290E-17,  6.961434270E+05, -2.229027419E+02])),
        note='Hf:Anderson,1989. Gurvich,1978 pt2 p223. [g 4/99]')
